7
Na       6.82066566       9.55750935       7.59509062        0       0.00533503      -0.00521145       0.00934716       0.00000000
Na       4.37094590       7.41319026       6.50881387        1       0.00971295      -0.00028197      -0.00081701       0.00000000
Na       6.54871886       6.17215610       8.75547416        2      -0.00456418      -0.00222184      -0.01033344       0.00000000
Na       9.72435614       7.44769096       8.04528803        3      -0.00165647       0.00121516       0.00550331       0.00000000
Na       7.94715923       8.50164938      10.69298288        4       0.00187848       0.00784343      -0.00315835       0.00000000
Na       9.48766399       9.52653473       5.43160393        5      -0.00562648      -0.00241385      -0.00237084       0.00000000
Na       7.50276711       6.80523853       5.42631869        6      -0.00493117       0.00065751       0.00099810       0.00000000
